 .Wgn file Subbasin: 4 STATION NAME:ZY 2020/2/22 0:00:00 ArcSWAT 2012.10_3.19
  LATITUDE =  38.93 LONGITUDE = 100.38
  ELEV [m] =1483.00
  RAIN_YRS =  10.00
  0.35  4.84 11.22 18.75 24.57 28.55 31.37 29.26 23.96 17.01  8.49  1.98
-15.23-12.23 -5.04  2.94  8.53 13.14 16.08 13.76  9.26  1.24 -6.52-13.65
  4.76  4.17  5.16  4.88  3.63  3.90  3.90  3.88  4.06  4.37  4.79  4.78
  3.42  3.91  3.58  4.08  3.08  2.97  3.51  3.58  3.71  3.49  2.50  3.28
   3.4   0.3   1.8   2.1  10.9  15.9  22.3  19.5  23.2   7.1   1.0   2.1
  3.31  0.33  1.81  2.07 10.70 15.60 21.84 19.11 22.66  7.01  0.97  2.04
 -1.03 -1.01 -1.03 -1.03 -1.00 -1.03 -1.03 -1.03 -1.03 -1.03 -0.99 -1.03
  0.10  0.02  0.03  0.07  0.08  0.15  0.16  0.19  0.21  0.08  0.02  0.08
  0.18  0.33  0.00  0.14  0.30  0.27  0.32  0.33  0.25  0.30  0.00  0.00
  3.67  1.00  1.00  2.33  3.33  5.00  6.33  7.00  6.67  3.33  0.67  2.33
  0.00  0.00  0.00  0.00  5.10  4.73 11.07 11.37  8.27  0.00  0.00  0.00
 10.31 12.89 15.48 19.47 23.23 23.33 21.66 21.57 19.09 15.51 11.63  9.30
-20.37-16.63-11.40 -3.25  3.90  9.48 13.38 10.96  6.38 -2.66-13.14-19.92
  1.79  1.86  2.24  2.51  2.26  2.14  1.96  1.86  1.75  1.53  1.71  1.63
