 .Sol file Watershed HRU:26 Subbasin:1 HRU:26 Luse:WATR Soil: soil-61 Slope: 30-60 2020/2/22 0:00:00 ArcSWAT 2012.10_3.19
 Soil Name: soil-61
 Soil Hydrologic Group: A
 Maximum rooting depth(mm) :  800.00
 Porosity fraction from which anions are excluded: 0.500
 Crack volume potential of soil: 0.000
 Texture 1                : LFS-
 Depth                [mm]:      200.00      400.00      800.00
 Bulk Density Moist [g/cc]:        1.31        1.17        1.30
 Ave. AW Incl. Rock Frag  :        0.21        0.24        0.26
 Ksat. (est.)      [mm/hr]:       17.08       22.16       11.82
 Organic Carbon [weight %]:        1.91        2.61        2.20
 Clay           [weight %]:        8.39        5.69        4.37
 Silt           [weight %]:       70.60       77.69       35.78
 Sand           [weight %]:       21.01       16.62       59.85
 Rock Fragments   [vol. %]:        0.00        0.00       49.91
 Soil Albedo (Moist)      :        1.41        1.41        1.41
 Erosion K                :        0.17        0.17        0.17
 Salinity (EC, Form 5)    :        0.00        0.00        0.00
 Soil pH                  :        0.00        0.00        0.00
 Soil CACO3               :        0.00        0.00        0.00
                              
