 .Sol file Watershed HRU:146 Subbasin:7 HRU:9 Luse:FRST Soil: soil-171 Slope: 30-60 2020/2/22 0:00:00 ArcSWAT 2012.10_3.19
 Soil Name: soil-171
 Soil Hydrologic Group: B
 Maximum rooting depth(mm) :  330.00
 Porosity fraction from which anions are excluded: 0.500
 Crack volume potential of soil: 0.000
 Texture 1                : LFS-
 Depth                [mm]:      370.00      750.00     1350.00
 Bulk Density Moist [g/cc]:        1.11        1.57        1.63
 Ave. AW Incl. Rock Frag  :        0.12        0.09        0.07
 Ksat. (est.)      [mm/hr]:       49.05       15.03       16.56
 Organic Carbon [weight %]:        3.67        0.74        0.35
 Clay           [weight %]:       17.61       17.18       15.50
 Silt           [weight %]:       36.21       33.77       28.20
 Sand           [weight %]:       46.18       49.05       56.30
 Rock Fragments   [vol. %]:        0.00        0.00        0.00
 Soil Albedo (Moist)      :        0.16        0.06        0.12
 Erosion K                :        0.20        0.20        0.20
 Salinity (EC, Form 5)    :        1.00        0.00        0.00
 Soil pH                  :        0.00        0.00        0.00
 Soil CACO3               :        0.00        0.00        0.00
                              
