 .Wgn file Subbasin: 3 STATION NAME:TL 2020/2/22 0:00:00 ArcSWAT 2012.10_3.19
  LATITUDE =  38.82 LONGITUDE =  98.42
  ELEV [m] =3360.70
  RAIN_YRS =  10.00
 -6.13 -2.28  2.44  7.97 12.30 16.32 19.99 17.52 13.78  8.20  1.26 -4.99
-24.78-21.75-16.28 -8.73 -3.11  2.49  5.67  3.34 -0.63 -8.05-16.82-23.40
  2.53  3.69  4.37  4.41  3.42  3.25  4.16  3.39  2.83  3.45  3.49  2.69
  4.01  3.92  4.03  3.88  2.92  2.73  3.30  3.27  3.38  3.38  4.21  3.44
   1.0   1.6   0.4   5.5  38.5  52.0  73.4  80.3  43.2   3.4   1.4   0.8
  1.02  1.60  0.40  5.41 37.58 50.69 71.51 78.39 42.08  3.36  1.39  0.76
 -1.03 -1.03 -1.01 -1.02 -1.03 -1.02 -1.02 -1.02 -1.02 -1.03 -1.00 -1.03
  0.07  0.08  0.05  0.15  0.19  0.45  0.29  0.36  0.30  0.07  0.06  0.03
  0.14  0.14  0.20  0.27  0.46  0.54  0.66  0.59  0.60  0.00  0.00  0.20
  2.33  2.33  1.67  5.00  8.00 15.33 14.67 15.33 13.33  2.00  1.67  1.67
  0.00  0.00  0.00  0.00 17.00 14.27 16.27 24.40 10.63  0.00  0.00  0.00
 10.21 13.44 17.26 20.62 10.31 23.83 22.79 21.30 18.11 15.51 11.70  9.44
-23.73-19.69-16.61 -7.83 -0.87  5.48  9.70  7.92  3.48 -6.31-14.56-22.21
  1.61  1.97  2.89  3.38  3.04  2.73  2.39  2.38  1.98  1.80  1.45  1.22
