 .Sol file Watershed HRU:104 Subbasin:5 HRU:21 Luse:WATR Soil: soil-101 Slope: 30-60 2020/2/22 0:00:00 ArcSWAT 2012.10_3.19
 Soil Name: soil-101
 Soil Hydrologic Group: A
 Maximum rooting depth(mm) :  100.00
 Porosity fraction from which anions are excluded: 0.500
 Crack volume potential of soil: 0.000
 Texture 1                : LFS-
 Depth                [mm]:       30.00      100.00
 Bulk Density Moist [g/cc]:        1.60        1.58
 Ave. AW Incl. Rock Frag  :        0.08        0.55
 Ksat. (est.)      [mm/hr]:        5.78        0.55
 Organic Carbon [weight %]:        0.05        0.04
 Clay           [weight %]:       14.01       17.37
 Silt           [weight %]:       34.67       43.11
 Sand           [weight %]:       51.32       39.52
 Rock Fragments   [vol. %]:        0.00        0.00
 Soil Albedo (Moist)      :        0.20        0.21
 Erosion K                :        0.20        0.20
 Salinity (EC, Form 5)    :        1.00        0.00
 Soil pH                  :        0.00        0.00
 Soil CACO3               :        0.00        0.00
                              
