 .Sol file Watershed HRU:7 Subbasin:1 HRU:7 Luse:FRST Soil: soil-163 Slope: 0-30 2020/2/22 0:00:00 ArcSWAT 2012.10_3.19
 Soil Name: soil-163
 Soil Hydrologic Group: A
 Maximum rooting depth(mm) :  220.00
 Porosity fraction from which anions are excluded: 0.500
 Crack volume potential of soil: 0.000
 Texture 1                : LFS-
 Depth                [mm]:      130.00      290.00      450.00
 Bulk Density Moist [g/cc]:        1.33        1.39        1.59
 Ave. AW Incl. Rock Frag  :        0.18        0.17        0.16
 Ksat. (est.)      [mm/hr]:       22.03       44.03       44.03
 Organic Carbon [weight %]:        1.74        1.45        0.46
 Clay           [weight %]:        6.67        7.32        0.52
 Silt           [weight %]:       72.99       72.01        3.90
 Sand           [weight %]:       20.34       20.67       95.58
 Rock Fragments   [vol. %]:        0.00        0.00       66.59
 Soil Albedo (Moist)      :        1.41        1.41        1.41
 Erosion K                :        0.17        0.17        0.17
 Salinity (EC, Form 5)    :        1.00        0.00        0.00
 Soil pH                  :        0.00        0.00        0.00
 Soil CACO3               :        0.00        0.00        0.00
                              
