 .Sol file Watershed HRU:128 Subbasin:5 HRU:45 Luse:WETL Soil: soil-201 Slope: 0-30 2020/2/22 0:00:00 ArcSWAT 2012.10_3.19
 Soil Name: soil-201
 Soil Hydrologic Group: C
 Maximum rooting depth(mm) :  290.00
 Porosity fraction from which anions are excluded: 0.500
 Crack volume potential of soil: 0.000
 Texture 1                : LFS-
 Depth                [mm]:       70.00      480.00
 Bulk Density Moist [g/cc]:        1.19        1.50
 Ave. AW Incl. Rock Frag  :        0.14        0.14
 Ksat. (est.)      [mm/hr]:       10.01        6.56
 Organic Carbon [weight %]:        5.73        0.64
 Clay           [weight %]:       38.40       24.84
 Silt           [weight %]:       30.08       41.53
 Sand           [weight %]:       31.52       33.63
 Rock Fragments   [vol. %]:        0.00        0.00
 Soil Albedo (Moist)      :        0.16        0.07
 Erosion K                :        0.20        0.20
 Salinity (EC, Form 5)    :        1.00        0.00
 Soil pH                  :        0.00        0.00
 Soil CACO3               :        0.00        0.00
                              
