 .Sol file Watershed HRU:531 Subbasin:19 HRU:26 Luse:PAST Soil: soil-52 Slope: 0-30 2020/2/22 0:00:00 ArcSWAT 2012.10_3.19
 Soil Name: soil-52
 Soil Hydrologic Group: C
 Maximum rooting depth(mm) :  200.00
 Porosity fraction from which anions are excluded: 0.500
 Crack volume potential of soil: 0.000
 Texture 1                : LFS-
 Depth                [mm]:       50.00      200.00
 Bulk Density Moist [g/cc]:        1.56        1.55
 Ave. AW Incl. Rock Frag  :        0.20        0.19
 Ksat. (est.)      [mm/hr]:       16.58       16.00
 Organic Carbon [weight %]:        0.63        0.59
 Clay           [weight %]:        7.49        8.25
 Silt           [weight %]:       69.26       68.11
 Sand           [weight %]:       23.25       23.64
 Rock Fragments   [vol. %]:        0.00        0.00
 Soil Albedo (Moist)      :        0.07        0.07
 Erosion K                :        0.20        0.20
 Salinity (EC, Form 5)    :        1.00        0.00
 Soil pH                  :        0.00        0.00
 Soil CACO3               :        0.00        0.00
                              
