 .Sol file Watershed HRU:590 Subbasin:20 HRU:28 Luse:BARR Soil: soil-91 Slope: 0-30 2020/2/22 0:00:00 ArcSWAT 2012.10_3.19
 Soil Name: soil-91
 Soil Hydrologic Group: A
 Maximum rooting depth(mm) :  650.00
 Porosity fraction from which anions are excluded: 0.500
 Crack volume potential of soil: 0.000
 Texture 1                : LFS-
 Depth                [mm]:      150.00      400.00      650.00
 Bulk Density Moist [g/cc]:        1.15        1.14        1.46
 Ave. AW Incl. Rock Frag  :        0.22        0.24        0.18
 Ksat. (est.)      [mm/hr]:       12.58       35.98       50.44
 Organic Carbon [weight %]:        3.07        3.02        1.57
 Clay           [weight %]:        6.53        2.93        7.06
 Silt           [weight %]:       71.85       31.43       63.41
 Sand           [weight %]:       21.62       65.64       29.53
 Rock Fragments   [vol. %]:        0.00       45.57        0.00
 Soil Albedo (Moist)      :        1.41        1.41        1.41
 Erosion K                :        0.17        0.17        0.17
 Salinity (EC, Form 5)    :        0.00        0.00        0.00
 Soil pH                  :        0.00        0.00        0.00
 Soil CACO3               :        0.00        0.00        0.00
                              
