 .Sol file Watershed HRU:60 Subbasin:3 HRU:17 Luse:BARR Soil: soil-132 Slope: 30-60 2020/2/22 0:00:00 ArcSWAT 2012.10_3.19
 Soil Name: soil-132
 Soil Hydrologic Group: D
 Maximum rooting depth(mm) :  120.00
 Porosity fraction from which anions are excluded: 0.500
 Crack volume potential of soil: 0.000
 Texture 1                : LFS-
 Depth                [mm]:       10.00      110.00      250.00      400.00
 Bulk Density Moist [g/cc]:        1.30        0.90        1.49        1.56
 Ave. AW Incl. Rock Frag  :        0.11        0.88        0.10        0.09
 Ksat. (est.)      [mm/hr]:       20.50       18.05        1.64        4.12
 Organic Carbon [weight %]:        1.82        1.82        0.33        0.33
 Clay           [weight %]:       14.78       13.96       23.77       16.42
 Silt           [weight %]:       72.42       68.74       60.73       52.38
 Sand           [weight %]:       12.80       17.30       15.50       31.20
 Rock Fragments   [vol. %]:        0.00        0.00        0.00        0.00
 Soil Albedo (Moist)      :        0.16        0.16        0.12        0.12
 Erosion K                :        0.20        0.20        0.20        0.20
 Salinity (EC, Form 5)    :        1.00        0.00        0.00        0.00
 Soil pH                  :        0.00        0.00        0.00        0.00
 Soil CACO3               :        0.00        0.00        0.00        0.00
                              
