 .Wgn file Subbasin: 2 STATION NAME:YNG 2020/2/22 0:00:00 ArcSWAT 2012.10_3.19
  LATITUDE =  38.42 LONGITUDE =  99.58
  ELEV [m] =3180.00
  RAIN_YRS =  10.00
 -4.63 -1.24  2.87  8.12 11.77 15.43 18.90 16.85 13.44  8.52  2.16 -3.93
-24.64-22.28-16.88 -9.37 -3.49  1.62  4.31  2.41 -0.49 -8.11-17.57-23.84
  3.06  4.09  4.58  4.34  3.53  3.22  4.06  3.44  3.02  3.35  4.14  2.80
  4.49  4.23  4.39  4.16  2.75  2.68  3.08  3.38  3.58  4.22  4.17  3.52
   1.3   3.2   6.3  16.0  34.8  67.1  90.5  62.7  64.1   5.8   2.3   0.6
  1.25  3.10  6.13 15.61 33.92 65.32 88.19 61.12 62.41  5.71  2.25  0.57
 -1.03 -1.03 -1.03 -1.03 -1.02 -1.02 -1.02 -1.02 -1.02 -1.03 -1.03 -1.00
  0.08  0.11  0.12  0.22  0.35  0.43  0.42  0.45  0.33  0.09  0.09  0.05
  0.13  0.38  0.50  0.35  0.50  0.60  0.76  0.64  0.65  0.44  0.30  0.00
  2.67  4.33  6.00  7.67 12.67 16.00 20.67 17.67 16.00  5.33  3.33  1.67
  0.00  0.00  0.00  0.00 10.33 13.27 14.83 14.13 15.00  0.00  0.00  0.00
  9.34 12.90 14.63 17.80 22.76 23.48 22.09 22.12 18.68 14.45 12.00  8.90
-21.58-18.06-14.01 -6.84  0.34  6.82 10.93  8.75  4.67 -5.03-14.84-21.72
  2.47  2.48  2.90  3.38  2.87  2.57  2.38  2.21  2.13  2.15  2.09  2.34
