 .Sol file Watershed HRU:521 Subbasin:19 HRU:16 Luse:FRST Soil: soil-53 Slope: 30-60 2020/2/22 0:00:00 ArcSWAT 2012.10_3.19
 Soil Name: soil-53
 Soil Hydrologic Group: A
 Maximum rooting depth(mm) :  260.00
 Porosity fraction from which anions are excluded: 0.500
 Crack volume potential of soil: 0.000
 Texture 1                : LFS-
 Depth                [mm]:      200.00      500.00      700.00      900.00     1200.00
 Bulk Density Moist [g/cc]:        1.61        1.61        1.59        1.60        1.61
 Ave. AW Incl. Rock Frag  :        0.11        0.11        0.28        0.16        0.09
 Ksat. (est.)      [mm/hr]:       27.87       19.37       16.38       24.75       20.04
 Organic Carbon [weight %]:        0.21        0.21        0.30        0.41        0.18
 Clay           [weight %]:       10.20       13.30       17.10        5.30       15.00
 Silt           [weight %]:       37.23       38.40       30.21       62.70       29.00
 Sand           [weight %]:       52.57       48.30       52.69       32.00       56.00
 Rock Fragments   [vol. %]:        0.00        0.00        0.00        0.00        0.00
 Soil Albedo (Moist)      :        0.15        0.15        0.13        0.10        0.16
 Erosion K                :        0.20        0.20        0.20        0.20        0.20
 Salinity (EC, Form 5)    :        1.00        0.00        0.00        0.00        0.00
 Soil pH                  :        0.00        0.00        0.00        0.00        0.00
 Soil CACO3               :        0.00        0.00        0.00        0.00        0.00
                              
