 .Sol file Watershed HRU:351 Subbasin:14 HRU:10 Luse:PAST Soil: soil-161 Slope: 30-60 2020/2/22 0:00:00 ArcSWAT 2012.10_3.19
 Soil Name: soil-161
 Soil Hydrologic Group: A
 Maximum rooting depth(mm) :  220.00
 Porosity fraction from which anions are excluded: 0.500
 Crack volume potential of soil: 0.000
 Texture 1                : LFS-
 Depth                [mm]:      150.00      350.00      600.00
 Bulk Density Moist [g/cc]:        1.42        1.31        1.09
 Ave. AW Incl. Rock Frag  :        0.09        0.08        0.12
 Ksat. (est.)      [mm/hr]:       15.10        4.65       18.45
 Organic Carbon [weight %]:        1.33        2.55        3.48
 Clay           [weight %]:       13.31       20.45        7.47
 Silt           [weight %]:       63.89       61.25       77.70
 Sand           [weight %]:       22.80       18.30       14.83
 Rock Fragments   [vol. %]:        0.00        0.00        0.00
 Soil Albedo (Moist)      :        0.16        0.16        1.41
 Erosion K                :        0.20        0.20        0.17
 Salinity (EC, Form 5)    :        1.00        1.00        0.00
 Soil pH                  :        0.00        0.00        0.00
 Soil CACO3               :        0.00        0.00        0.00
                              
