 .Sol file Watershed HRU:454 Subbasin:17 HRU:32 Luse:WATR Soil: soil-172 Slope: 30-60 2020/2/22 0:00:00 ArcSWAT 2012.10_3.19
 Soil Name: soil-172
 Soil Hydrologic Group: B
 Maximum rooting depth(mm) :  520.00
 Porosity fraction from which anions are excluded: 0.500
 Crack volume potential of soil: 0.000
 Texture 1                : LFS-
 Depth                [mm]:      120.00      320.00      500.00      700.00
 Bulk Density Moist [g/cc]:        0.90        0.80        0.89        1.65
 Ave. AW Incl. Rock Frag  :        0.15        0.18        0.17        0.11
 Ksat. (est.)      [mm/hr]:       94.08      118.21       76.43       32.75
 Organic Carbon [weight %]:       12.43       11.41       10.90        0.18
 Clay           [weight %]:       12.18        8.00       12.98        6.59
 Silt           [weight %]:       47.12       61.40       60.82       40.51
 Sand           [weight %]:       40.70       30.60       26.20       52.90
 Rock Fragments   [vol. %]:        0.00        0.00        0.00        0.00
 Soil Albedo (Moist)      :        0.16        0.16        0.00        0.16
 Erosion K                :        0.20        0.20        0.20        0.20
 Salinity (EC, Form 5)    :        1.00        0.00        0.00        0.00
 Soil pH                  :        0.00        0.00        0.00        0.00
 Soil CACO3               :        0.00        0.00        0.00        0.00
                              
