 .Sol file Watershed HRU:319 Subbasin:12 HRU:33 Luse:WETL Soil: soil-111 Slope: 0-30 2020/2/22 0:00:00 ArcSWAT 2012.10_3.19
 Soil Name: soil-111
 Soil Hydrologic Group: C
 Maximum rooting depth(mm) :  200.00
 Porosity fraction from which anions are excluded: 0.500
 Crack volume potential of soil: 0.000
 Texture 1                : LFS-
 Depth                [mm]:      120.00      300.00      540.00
 Bulk Density Moist [g/cc]:        1.80        1.09        1.23
 Ave. AW Incl. Rock Frag  :        0.88        0.88        0.13
 Ksat. (est.)      [mm/hr]:        5.78        0.14        0.14
 Organic Carbon [weight %]:       11.22        3.24        0.45
 Clay           [weight %]:       11.95       11.16       13.15
 Silt           [weight %]:       66.85       66.74       69.95
 Sand           [weight %]:       21.20       22.10       16.90
 Rock Fragments   [vol. %]:        0.00        0.00        0.00
 Soil Albedo (Moist)      :        0.16        0.16        0.10
 Erosion K                :        0.20        0.20        0.20
 Salinity (EC, Form 5)    :        1.00        0.00        0.00
 Soil pH                  :        0.00        0.00        0.00
 Soil CACO3               :        0.00        0.00        0.00
                              
