 .Sol file Watershed HRU:606 Subbasin:21 HRU:14 Luse:PAST Soil: soil-121 Slope: 30-60 2020/2/22 0:00:00 ArcSWAT 2012.10_3.19
 Soil Name: soil-121
 Soil Hydrologic Group: A
 Maximum rooting depth(mm) :  550.00
 Porosity fraction from which anions are excluded: 0.500
 Crack volume potential of soil: 0.000
 Texture 1                : LFS-
 Depth                [mm]:      250.00      490.00      720.00     1000.00
 Bulk Density Moist [g/cc]:        1.27        0.90        0.89        0.94
 Ave. AW Incl. Rock Frag  :        0.15        0.18        0.17        0.17
 Ksat. (est.)      [mm/hr]:      104.66       77.75       52.79       52.97
 Organic Carbon [weight %]:        5.72        4.12        0.77        0.42
 Clay           [weight %]:        7.83       21.98       21.98       20.29
 Silt           [weight %]:       65.67       63.72       63.72       55.21
 Sand           [weight %]:       26.50       14.30       14.30       24.50
 Rock Fragments   [vol. %]:        0.00        0.00        0.00        0.00
 Soil Albedo (Moist)      :        0.16        0.16        0.05        0.16
 Erosion K                :        0.20        0.20        0.20        0.20
 Salinity (EC, Form 5)    :        1.00        0.00        0.00        0.00
 Soil pH                  :        0.00        0.00        0.00        0.00
 Soil CACO3               :        0.00        0.00        0.00        0.00
                              
