 .Wgn file Subbasin: 21 STATION NAME:QL 2020/2/22 0:00:00 ArcSWAT 2012.10_3.19
  LATITUDE =  38.18 LONGITUDE = 100.25
  ELEV [m] =2787.40
  RAIN_YRS =  10.00
 -2.04  1.27  6.20 12.06 16.01 19.63 22.95 20.80 17.15 12.09  5.26 -1.53
-19.60-16.93-11.33 -4.15  0.67  5.34  7.73  5.76  3.05 -3.80-12.50-18.72
  3.21  3.82  4.74  4.79  3.84  3.65  4.56  3.82  3.28  3.43  3.74  2.76
  3.50  3.99  3.58  3.52  2.59  2.45  2.97  3.21  3.13  3.57  3.35  3.08
   0.6   1.1   2.9  15.0  47.2  62.9  92.6  72.8  63.5  15.1   0.5   0.5
  0.62  1.11  2.86 14.68 46.06 61.23 90.30 70.94 61.89 14.81  0.52  0.47
 -1.03 -1.04 -1.03 -1.03 -1.00 -1.02 -1.02 -1.02 -1.02 -1.03 -1.03 -0.99
  0.07  0.06  0.14  0.19  0.26  0.36  0.38  0.38  0.45  0.15  0.05  0.04
  0.14  0.25  0.31  0.25  0.57  0.61  0.63  0.53  0.52  0.38  0.00  0.00
  2.33  2.67  5.33  6.67 11.67 15.33 17.00 14.33 15.33  7.00  1.33  1.33
  0.00  0.00  0.00  0.00 15.20 14.37 21.97 16.10 17.33  0.00  0.00  0.00
 10.32 13.11 15.61 19.78 21.91 23.48 21.74 20.90 19.57 15.51 12.10  9.78
-20.37-16.63-11.40 -3.25  3.90  9.48 13.38 10.96  6.38 -2.66-13.14-19.92
  0.68  0.80  0.93  1.04  1.07  0.96  0.76  0.73  0.71  0.68  0.70  0.70
